24
Coordinates from ORCA-job rf_mecn_opt_TPS_C8_D_B
  C   4.83036736668973      0.08445202607450     -0.36128393104983
  O   5.42408132991878     -0.77610440378170     -1.02903061916041
  O   5.07804116962821      1.28370757888896     -0.13802261052398
  C   3.50758843563535     -0.40884623124756      0.35452209277206
  C   2.23135948619099      0.29331870332239     -0.18523997094326
  C   0.88045388983329     -0.42150866913674      0.15284475868034
  C   -0.37824601402976      0.49973393878868     -0.00481551977681
  C   -1.72694493637285     -0.29086437480278     -0.10026396819629
  C   -2.99890992240339      0.55868014507229      0.20997411068447
  C   -4.27413128827956     -0.18515205298588     -0.16365321776542
  F   3.31234106099828     -1.75710078169754      0.21446605605041
  F   3.58034947893532     -0.16953976707343      1.70331093462633
  F   2.16449216937058      1.55637989310240      0.30019224211963
  F   2.32705019977964      0.36352848227758     -1.53990315778803
  F   0.73157444819354     -1.49268139395455     -0.66066367255899
  F   0.91688817877006     -0.85701369980529      1.43239493526897
  F   -0.43655752019750      1.33406907290240      1.05640795845015
  F   -0.24938518991264      1.24100947990076     -1.12764592420960
  F   -1.71002960067275     -1.32298926461111      0.77293277020995
  F   -1.84243004371056     -0.78979860758345     -1.35170565155887
  F   -2.90986613492470      1.74464331313283     -0.46072374544059
  F   -3.04257992503553      0.82342299234604      1.53218590473591
  F   -5.34127759872221      0.16377512345613      0.53756604585750
  F   -4.53970663968231     -0.23718850258493     -1.45943062048365
