24
Coordinates from ORCA-job rf_mecn_opt_TPS_C5_D_B
  C   3.95734840222529      0.54263897928339     -1.25047775402874
  O   4.44398612428568     -0.25266400660717     -2.06915480493533
  O   3.87945922340320      1.78497010834041     -1.23990385846994
  C   3.30800764392876     -0.12202735948031      0.03121268006370
  C   1.77259138613504      0.09939626744942      0.11008258906148
  C   0.95902233105548     -0.86324118115498      1.03728058300859
  C   -0.46006600397075     -0.42514385954604      1.27577545304787
  C   -1.68635618505178     -0.75967054872374      0.48775628913479
  C   -2.54827726569906      0.49650475853693      0.12318571291302
  C   -3.63074581972105      0.26293478948226     -0.97563906108182
  F   3.53325913247002     -1.47075108303686      0.08554546854736
  F   3.86515353752397      0.40209124569918      1.17052917735721
  F   1.51627705210561      1.36024873099001      0.54441614675875
  F   1.25176613570204     -0.02698302527519     -1.14140439996026
  F   0.96003546730895     -2.10921535209901      0.50179690293430
  F   1.58788222846881     -0.91090424241588      2.24470809439070
  F   -0.64586480317873      0.40555119470877      2.29389318699803
  F   -2.49521326671029     -1.60278091662653      1.20182727739524
  F   -1.34169598087459     -1.39400358794452     -0.65692855242736
  F   -1.72697780681901      1.47490791133985     -0.31964586092286
  F   -3.17689348620223      0.93196948761086      1.23586941196513
  F   -4.39068402051150     -0.79726870846141     -0.68138271483055
  F   -4.41648511054798      1.34358025336727     -1.04507284284908
  F   -3.06504711532587      0.07390294456328     -2.16981552407023
