24
Coordinates from ORCA-job rf_mecn_opt_TPS_C3_D_B
  C   3.57361820966682     -0.42692741520828     -1.18219699772931
  O   4.21749301906571     -1.41161493731454     -1.57068455878964
  O   2.93096695787942      0.44331836679674     -1.80988385264612
  C   3.57471810368224     -0.13727608759819      0.35823466316453
  C   2.25619789301551      0.32700085019191      0.87839666129774
  C   0.98187807713857     -0.43914146034084      0.77319207527421
  C   -0.27413367836623      0.45995460157462      0.49892214985703
  C   -1.52057474954260     -0.32176920390328     -0.03217216842478
  C   -2.86531380899647      0.46344122282904      0.12362873188904
  C   -4.02577089554178     -0.07033555817097     -0.77655074133243
  F   4.02232719232080     -1.21725329011824      1.10662461254230
  F   4.49061003170999      0.86747577165441      0.60531759899441
  F   2.26721135197639      1.20642671719108      1.89121090445184
  F   1.08446468022032     -1.36024478768379     -0.21661065917987
  F   0.72804563670579     -1.12008725619417      1.94085182841526
  F   -0.61183802757308      1.08715137351257      1.65154576942944
  F   0.05058969610171      1.39715583949219     -0.41586806638885
  F   -1.63969053482638     -1.48842199537149      0.63756712311814
  F   -1.32870198942130     -0.59598624876339     -1.34196909386170
  F   -2.67420062418825      1.76343109891339     -0.19016981305478
  F   -3.26973756565428      0.38175390436291      1.40690286644830
  F   -4.12990437020429     -1.39998325106286     -0.67938318691245
  F   -5.17593108521288      0.47867944355675     -0.37267414966237
  F   -3.82506911995575      0.25710370165442     -2.05491969689993
