24
Coordinates from ORCA-job rf_mecn_opt_B3L_C2_D_B
  C   4.42879011566223     -0.68360754740742     -0.36971072382659
  O   4.00366618689405     -1.07127149574784     -1.48156494539369
  O   5.46681710263262     -0.99934141674558      0.24716505131304
  C   3.54526814764702      0.30961991123567      0.32960120613679
  C   2.24963685915454      0.90227656002534     -0.13267161164488
  C   1.00634296068056     -0.02874614125651      0.09070320704107
  C   -0.38457766720849      0.68957490957413      0.02742664090862
  C   -1.58635165778681     -0.30624613653767     -0.15075551170918
  C   -2.96771039414876      0.30684568045492      0.25098788750035
  C   -4.20669312663230     -0.51293104176657     -0.23466542691277
  F   3.78292951903878      0.58180325858473      1.62121737227564
  F   1.99979632792394      2.05283574005415      0.57189421853327
  F   2.29273923345583      1.23369689113040     -1.44535045516394
  F   1.02339999516252     -1.01054818860188     -0.83218880764952
  F   1.12468494211757     -0.58952316023599      1.31806690024314
  F   -0.56832446979457      1.39035942837803      1.16521010069326
  F   -0.39701649304125      1.55074859015458     -1.00976519038788
  F   -1.37878903898686     -1.39954160054536      0.61127653676667
  F   -1.64057608230005     -0.68615704866161     -1.44257865851237
  F   -3.07683686322895      1.54840971148238     -0.26488617433590
  F   -3.03673348811889      0.38210610788015      1.59316355632325
  F   -4.09650216003763     -1.79519213346687      0.11933117150308
  F   -5.30004515264427     -0.00238025442856      0.33655743437740
  F   -4.34409539644080     -0.43718482355262     -1.55765617807886
