24
Coordinates from ORCA-job rf_mecn_opt_B3L_C6_D_B
  C   4.35473818197150     -0.21232197012568     -1.06291624400394
  O   4.61403523825422     -1.15229246620752     -1.82489058185626
  O   4.80164037415931      0.94372302545145     -0.99032334915096
  C   3.25401537024943     -0.51851035272637      0.03316344209469
  C   1.96809224242133      0.33706021446621     -0.14839113793160
  C   0.70566100332606     -0.20956411614233      0.59738115723079
  C   -0.45212594969859      0.83746069395011      0.77723313475523
  C   -1.75860867236647      0.19183864508652      1.11893586499947
  C   -3.09109662688641      0.40012554208860      0.45911379891798
  C   -3.31837391348130     -0.38811502650819     -0.86970225262546
  F   2.87155808502981     -1.82890744592400      0.02257023914463
  F   3.75139929441622     -0.27326953047867      1.28510020686851
  F   2.19556392908956      1.59944388889320      0.27818465588678
  F   1.67100312381725      0.38418595474284     -1.47208440883270
  F   0.20508449147613     -1.25713260500049     -0.09631227451374
  F   1.06268904306311     -0.64536988348358      1.82536131607675
  F   -0.08307089898997      1.69954548111787      1.76760250132151
  F   -0.58806676844291      1.55256627578236     -0.36270630318308
  F   -1.71658701211430     -0.73654128971967      2.05833026798645
  F   -3.27833985313505      1.71311347316513      0.17675527070313
  F   -4.05778855774784     -0.00398215071057      1.31720695836426
  F   -3.11579721216493     -1.69310888344732     -0.66448737355591
  F   -4.57134539754549     -0.21197022217299     -1.29737521979595
  F   -2.48049131470070      0.03696974790311     -1.81734326890058
