24
Coordinates from ORCA-job rf_mecn_opt_B3L_C8_D_B
  C   4.83110256718770      0.08241788460148     -0.35383537521705
  O   5.38756763002063     -0.75417522581738     -1.07617437136006
  O   5.11664586107656      1.25772478219615     -0.07504751534158
  C   3.50518635195602     -0.41585661094292      0.35594328362202
  C   2.23440108184282      0.29998514714757     -0.18279010469231
  C   0.88067335008641     -0.41719114529157      0.14648121424577
  C   -0.37924444143502      0.50599589661127     -0.01047831689615
  C   -1.72742918126165     -0.28961025483669     -0.09397356411335
  C   -3.00210382529282      0.56311854568081      0.20153968134382
  C   -4.27557002332590     -0.19066836877012     -0.15434073182054
  F   3.31193084008217     -1.75827147838676      0.19663628446561
  F   3.57474848270447     -0.19230858258829      1.70410325232811
  F   2.17478275168750      1.55464095391073      0.31775574139999
  F   2.33377802508243      0.38512228387401     -1.53282862222930
  F   0.73596323282003     -1.48173982731943     -0.67174302126405
  F   0.91469417880360     -0.85778228079110      1.42140314444943
  F   -0.43197325328834      1.34253646712418      1.04544581161999
  F   -0.25719437750563      1.24017471334740     -1.13533153327532
  F   -1.70719711762100     -1.30238236196760      0.79763812722846
  F   -1.84079034075520     -0.80857489890010     -1.33468770793317
  F   -2.92191115555287      1.73117051242030     -0.49749855512734
  F   -3.04156012953301      0.85759035759694      1.51484084089350
  F   -5.33919615308331      0.15792375115091      0.54628060642332
  F   -4.54278195469561     -0.27190726004978     -1.44492336874980
